
 Fire Dynamics Simulator

 Current Date     : April 24, 2021  14:37:14
 Revision         : FDS6.7.4-0-gbfaa110f1-release
 Revision Date    : Fri Mar 6 10:17:46 2020 -0500
 Compiler         : Intel ifort 19.0.4.245
 Compilation Date : Mon 03/09/2020  04:12 PM

 MPI Enabled;    Number of MPI Processes:       1
 OpenMP Enabled; Number of OpenMP Threads:      1

 MPI version: 3.1
 MPI library version: Intel(R) MPI Library 2019 Update 4 for Windows* OS


 Job TITLE        : 
 Job ID string    : Model1


 Grid Dimensions, Mesh     1

   Cells in the X Direction            40
   Cells in the Y Direction            40
   Cells in the Z Direction            12
   Number of Grid Cells             19200


 Physical Dimensions, Mesh     1

   Length (m)                      10.000
   Width  (m)                      10.000
   Height (m)                       3.000
   Initial Time Step (s)            0.228

Total Number of Grid Cells         19200


 Miscellaneous Parameters

   Simulation Start Time (s)          0.0
   Simulation End Time (s)          300.0
   LES Calculation
   Eddy Viscosity:           Deardorff Model (C_DEARDORFF = 0.10)
   Near-wall Eddy Viscosity: Smagorinsky with Van Driest damping (C_SMAGORINSKY = 0.20)
   Turbulent Prandtl Number:         0.50
   Turbulent Schmidt Number:         0.50
   Ambient Temperature (C):         20.00


 Mass Fraction Transformation Matrix to Convert Species Mixtures (Columns) to Primitive Species (Rows)

                         AIR       REAC_FUE  PRODUCTS
   REAC_FUEL             0.000000  1.000000  0.000000
   NITROGEN              0.762470  0.000000  0.672568
   OXYGEN                0.230997  0.000000  0.000000
   CARBON DIOXIDE        0.000591  0.000000  0.242423
   CARBON MONOXIDE       0.000000  0.000000  0.000000
   WATER VAPOR           0.005941  0.000000  0.071286
   SOOT                  0.000000  0.000000  0.013724
   HYDROGEN              0.000000  0.000000  0.000000


 Primitive Species Information

   REAC_FUEL
   Gas Species
   Molecular Weight (g/mol)           130.42922
   Ambient Density (kg/m^3)            5.422
   Enthalpy of Formation (J/kg)       -3.21E+06

   NITROGEN
   Gas Species
   Molecular Weight (g/mol)            28.01340
   Ambient Density (kg/m^3)            1.165
   Enthalpy of Formation (J/kg)        0.00E+00

   OXYGEN
   Gas Species
   Molecular Weight (g/mol)            31.99880
   Ambient Density (kg/m^3)            1.330
   Enthalpy of Formation (J/kg)        0.00E+00

   CARBON DIOXIDE
   Gas Species
   Molecular Weight (g/mol)            44.00950
   Ambient Density (kg/m^3)            1.830
   Enthalpy of Formation (J/kg)       -8.94E+06

   CARBON MONOXIDE
   Gas Species
   Molecular Weight (g/mol)            28.01010
   Ambient Density (kg/m^3)            1.164
   Enthalpy of Formation (J/kg)       -3.95E+06

   WATER VAPOR
   Gas Species
   Molecular Weight (g/mol)            18.01528
   Ambient Density (kg/m^3)            0.749
   Enthalpy of Formation (J/kg)       -1.34E+07

   SOOT
   Gas Species
   Molecular Weight (g/mol)            10.91042
   Ambient Density (kg/m^3)            0.454
   Enthalpy of Formation (J/kg)        0.00E+00

   HYDROGEN
   Gas Species
   Molecular Weight (g/mol)             2.01588
   Ambient Density (kg/m^3)            0.084
   Enthalpy of Formation (J/kg)        0.00E+00


 Tracked (Lumped) Species Information

   AIR
   Molecular Weight (g/mol)            28.75199
   Ambient Density (kg/m^3)            1.195
   Initial Mass Fraction               1.000
   Enthalpy of Formation (J/kg)     -8.50E+04

   Sub Species                    Mass Fraction     Mole Fraction
   NITROGEN                       7.624701E-01      7.825730E-01
   OXYGEN                         2.309974E-01      2.075589E-01
   CARBON DIOXIDE                 5.914651E-04      3.864120E-04
   WATER VAPOR                    5.940984E-03      9.481679E-03
 
     Viscosity (kg/m/s) Ambient,  293 K:  1.80E-05
                                  500 K:  2.61E-05
                                 1000 K:  4.13E-05
                                 1500 K:  5.37E-05
   Therm. Cond. (W/m/K) Ambient,  293 K:  2.56E-02
                                  500 K:  3.81E-02
                                 1000 K:  6.69E-02
                                 1500 K:  9.25E-02
        Enthalpy (J/kg) Ambient,  293 K: -9.01E+04
                                  500 K:  1.22E+05
                                 1000 K:  6.72E+05
                                 1500 K:  1.27E+06
    Spec. Heat (J/kg/K) Ambient,  293 K:  1.02E+03
                                  500 K:  1.04E+03
                                 1000 K:  1.16E+03
                                 1500 K:  1.23E+03
   Diff. Coeff. (m^2/s) Ambient,  293 K:  1.99E-05
                                  500 K:  4.96E-05
                                 1000 K:  1.58E-04
                                 1500 K:  3.09E-04

   REAC_FUEL
   Molecular Weight (g/mol)           130.42922
   Ambient Density (kg/m^3)            5.422
   Initial Mass Fraction               0.000
   Enthalpy of Formation (J/kg)     -3.21E+06

   Sub Species                    Mass Fraction     Mole Fraction
   REAC_FUEL                      1.000000E+00      1.000000E+00
 
     Viscosity (kg/m/s) Ambient,  293 K:  3.75E-05
                                  500 K:  5.42E-05
                                 1000 K:  8.52E-05
                                 1500 K:  1.11E-04
   Therm. Cond. (W/m/K) Ambient,  293 K:  1.18E-02
                                  500 K:  1.70E-02
                                 1000 K:  2.68E-02
                                 1500 K:  3.48E-02
        Enthalpy (J/kg) Ambient,  293 K: -3.21E+06
                                  500 K: -3.16E+06
                                 1000 K: -3.05E+06
                                 1500 K: -2.94E+06
    Spec. Heat (J/kg/K) Ambient,  293 K:  2.23E+02
                                  500 K:  2.23E+02
                                 1000 K:  2.23E+02
                                 1500 K:  2.23E+02
   Diff. Coeff. (m^2/s) Ambient,  293 K:  1.55E-05
                                  500 K:  3.85E-05
                                 1000 K:  1.22E-04
                                 1500 K:  2.39E-04

   PRODUCTS
   Molecular Weight (g/mol)            28.79187
   Ambient Density (kg/m^3)            1.197
   Initial Mass Fraction               0.000
   Enthalpy of Formation (J/kg)     -3.12E+06

   Sub Species                    Mass Fraction     Mole Fraction
   NITROGEN                       6.725678E-01      6.912579E-01
   CARBON DIOXIDE                 2.424227E-01      1.585976E-01
   CARBON MONOXIDE                0.000000E+00      0.000000E+00
   WATER VAPOR                    7.128568E-02      1.139282E-01
   SOOT                           1.372385E-02      3.621630E-02
 
     Viscosity (kg/m/s) Ambient,  293 K:  1.61E-05
                                  500 K:  2.39E-05
                                 1000 K:  3.88E-05
                                 1500 K:  5.10E-05
   Therm. Cond. (W/m/K) Ambient,  293 K:  2.29E-02
                                  500 K:  3.60E-02
                                 1000 K:  6.69E-02
                                 1500 K:  9.53E-02
        Enthalpy (J/kg) Ambient,  293 K: -3.13E+06
                                  500 K: -2.91E+06
                                 1000 K: -2.31E+06
                                 1500 K: -1.65E+06
    Spec. Heat (J/kg/K) Ambient,  293 K:  1.04E+03
                                  500 K:  1.11E+03
                                 1000 K:  1.27E+03
                                 1500 K:  1.37E+03
   Diff. Coeff. (m^2/s) Ambient,  293 K:  1.95E-05
                                  500 K:  4.92E-05
                                 1000 K:  1.58E-04
                                 1500 K:  3.11E-04


 Gas Phase Reaction Information

   NFPA Babrauskas

   Reaction ID:  POLYURETHANE

   Fuel                                           Heat of Combustion (kJ/kg)
   REAC_FUEL                                                      19023.6298

   Stoichiometry

   Primitive Species Stoich. Coeff.
   Species ID                                                          Molar
   REAC_FUEL                                                       -1.000000
   NITROGEN                                                         0.500000
   OXYGEN                                                          -5.919204
   CARBON DIOXIDE                                                   5.224090
   WATER VAPOR                                                      3.490227
   SOOT                                                             1.195455

   Tracked (Lumped) Species Stoich. Coeff.
   Species ID                                             Molar         Mass
   AIR                                               -28.518190    -6.286587
   REAC_FUEL                                          -1.000000    -1.000000
   PRODUCTS                                           33.008758     7.286587

   Reaction Kinetics

   Arrhenius Parameters
   Pre-exponential:    Infinite
   Activation Energy:  N/A

   ODE Solver:  EXPLICIT EULER
   Extinction Model:  EXTINCTION 2
   Auto-Ignition Temperature (K):       0.0
   Critical Flame Temperature (K):   1700.2


 Material Information


 Surface Conditions

   0 INERT (DEFAULT)

   1 Fire
     Wall or Vent Temperature (C)   300.0
     HRR Per Unit Area (kW/m2)        100.0
     REAC_FUEL Mass Flux (kg/s/m2)   5.26E-03

   2 OPEN
     Passive Vent to Atmosphere

   3 MIRROR
     Symmetry Plane

   4 INTERPOLATED

   5 PERIODIC

   6 HVAC

   7 MASSLESS TRACER

   8 DROPLET

   9 EVACUATION_OUTFLOW
     Normal Velocity (m/s)         0.000

  10 MASSLESS TARGET

  11 PERIODIC WIND

  12 SLICE


 Radiation Model Information

   Number of control angles  104
   Time step increment         3
   Angle increment             5
   Theta band N_phi   Solid angle
     1:        4     0.120
     2:       12     0.114
     3:       16     0.127
     4:       20     0.120
     5:       20     0.120
     6:       16     0.127
     7:       12     0.114
     8:        4     0.120
   Using gray gas absorption.
   Mean beam length  0.100 m
 
 

 Run Time Diagnostics

       Time Step       1   April 24, 2021  14:37:14
       Step Size:    0.228E+00 s, Total Time:       0.23 s
       Pressure Iterations:      1
       Maximum Velocity Error:  0.26E-22 on Mesh   1 at (  20  21   0)
       Maximum Pressure Error:  0.99E-04 on Mesh   1 at (  23  22   1)
       ---------------------------------------------------------------
       Max CFL number:  0.18E-01 at (  19,  24,   3)
       Max divergence:  0.45E-02 at (  21,  22,   1)
       Min divergence: -0.90E-06 at (   7,   3,   2)
       Max VN number:   0.13E-01 at (  19,  29,   2)
       Total Heat Release Rate:              0.002 kW
       Radiation Loss to Boundaries:         0.442 kW
 
       Time Step       2   April 24, 2021  14:37:14
       Step Size:    0.228E+00 s, Total Time:       0.46 s
       Pressure Iterations:      1
       Maximum Velocity Error:  0.00E+00 on Mesh   1 at (  20  24   0)
       Maximum Pressure Error:  0.81E-01 on Mesh   1 at (  21  21   1)
       ---------------------------------------------------------------
       Max CFL number:  0.17E-01 at (  19,  23,   3)
       Max divergence:  0.10E-01 at (  21,  21,   1)
       Min divergence: -0.91E-06 at (   7,   3,   2)
       Max VN number:   0.13E-01 at (  19,  29,   2)
       Total Heat Release Rate:              0.009 kW
       Radiation Loss to Boundaries:         0.441 kW
 
       Time Step       3   April 24, 2021  14:37:14
       Step Size:    0.228E+00 s, Total Time:       0.68 s
       Pressure Iterations:      1
       Maximum Velocity Error:  0.00E+00 on Mesh   1 at (  19  19   0)
       Maximum Pressure Error:  0.13E+00 on Mesh   1 at (  21  21   1)
       ---------------------------------------------------------------
       Max CFL number:  0.17E-01 at (  19,  23,   3)
       Max divergence:  0.16E-01 at (  21,  21,   1)
       Min divergence: -0.91E-06 at (   7,   3,   2)
       Max VN number:   0.12E-01 at (  19,  29,   2)
       Total Heat Release Rate:              0.026 kW
       Radiation Loss to Boundaries:         0.440 kW
 
       Time Step       4   April 24, 2021  14:37:14
       Step Size:    0.228E+00 s, Total Time:       0.91 s
       Pressure Iterations:      1
       Maximum Velocity Error:  0.00E+00 on Mesh   1 at (  20  19   0)
       Maximum Pressure Error:  0.16E+00 on Mesh   1 at (  20  21   1)
       ---------------------------------------------------------------
       Max CFL number:  0.17E-01 at (  19,  22,   1)
       Max divergence:  0.21E-01 at (  21,  21,   1)
       Min divergence: -0.87E-06 at (   7,   3,   2)
       Max VN number:   0.12E-01 at (  19,  29,   2)
       Total Heat Release Rate:              0.053 kW
       Radiation Loss to Boundaries:         0.864 kW
 
       Time Step       5   April 24, 2021  14:37:14
       Step Size:    0.228E+00 s, Total Time:       1.14 s
       Pressure Iterations:      1
       Maximum Velocity Error:  0.00E+00 on Mesh   1 at (  20  19   0)
       Maximum Pressure Error:  0.76E-01 on Mesh   1 at (  20  21   1)
       ---------------------------------------------------------------
       Max CFL number:  0.20E-01 at (  19,  22,   1)
       Max divergence:  0.24E-01 at (  21,  21,   1)
       Min divergence: -0.87E-06 at (   7,   3,   2)
       Max VN number:   0.12E-01 at (  19,  29,   2)
       Total Heat Release Rate:              0.091 kW
       Radiation Loss to Boundaries:         0.862 kW
 
       Time Step       6   April 24, 2021  14:37:14
       Step Size:    0.228E+00 s, Total Time:       1.37 s
       Pressure Iterations:      1
       Maximum Velocity Error:  0.00E+00 on Mesh   1 at (  20  19   0)
       Maximum Pressure Error:  0.33E-01 on Mesh   1 at (  18  19   1)
       ---------------------------------------------------------------
       Max CFL number:  0.24E-01 at (  18,  20,   1)
       Max divergence:  0.27E-01 at (  21,  21,   1)
       Min divergence: -0.88E-06 at (   7,   3,   2)
       Max VN number:   0.12E-01 at (  19,  29,   2)
       Total Heat Release Rate:              0.139 kW
       Radiation Loss to Boundaries:         0.858 kW
 
       Time Step       7   April 24, 2021  14:37:15
       Step Size:    0.228E+00 s, Total Time:       1.60 s
       Pressure Iterations:      1
       Maximum Velocity Error:  0.00E+00 on Mesh   1 at (  20  19   0)
       Maximum Pressure Error:  0.79E-01 on Mesh   1 at (  18  19   1)
       ---------------------------------------------------------------
       Max CFL number:  0.31E-01 at (  18,  20,   1)
       Max divergence:  0.29E-01 at (  21,  21,   1)
       Min divergence: -0.85E-06 at (   7,   3,   2)
       Max VN number:   0.12E-01 at (  19,  29,   2)
       Total Heat Release Rate:              0.198 kW
       Radiation Loss to Boundaries:         1.584 kW
 
       Time Step       8   April 24, 2021  14:37:15
       Step Size:    0.228E+00 s, Total Time:       1.83 s
       Pressure Iterations:      1
       Maximum Velocity Error:  0.00E+00 on Mesh   1 at (  20  19   0)
       Maximum Pressure Error:  0.85E-01 on Mesh   1 at (  22  21   1)
       ---------------------------------------------------------------
       Max CFL number:  0.39E-01 at (  18,  20,   1)
       Max divergence:  0.30E-01 at (  21,  21,   1)
       Min divergence: -0.85E-06 at (   7,   3,   2)
       Max VN number:   0.14E-01 at (  24,  23,   2)
       Total Heat Release Rate:              0.269 kW
       Radiation Loss to Boundaries:         1.580 kW
 
       Time Step       9   April 24, 2021  14:37:15
       Step Size:    0.228E+00 s, Total Time:       2.05 s
       Pressure Iterations:      1
       Maximum Velocity Error:  0.00E+00 on Mesh   1 at (  20  19   0)
       Maximum Pressure Error:  0.11E+00 on Mesh   1 at (  20  21   1)
       ---------------------------------------------------------------
       Max CFL number:  0.50E-01 at (  18,  20,   1)
       Max divergence:  0.30E-01 at (  21,  21,   1)
       Min divergence: -0.85E-06 at (   7,   3,   2)
       Max VN number:   0.17E-01 at (  24,  23,   2)
       Total Heat Release Rate:              0.350 kW
       Radiation Loss to Boundaries:         1.576 kW
 
       Time Step      10   April 24, 2021  14:37:15
       Step Size:    0.228E+00 s, Total Time:       2.28 s
       Pressure Iterations:      1
       Maximum Velocity Error:  0.00E+00 on Mesh   1 at (  20  19   0)
       Maximum Pressure Error:  0.52E-01 on Mesh   1 at (  18  19   1)
       ---------------------------------------------------------------
       Max CFL number:  0.64E-01 at (  18,  24,   1)
       Max divergence:  0.31E-01 at (  21,  21,   1)
       Min divergence: -0.80E-06 at (   7,   3,   2)
       Max VN number:   0.23E-01 at (  24,  24,   2)
       Total Heat Release Rate:              0.442 kW
       Radiation Loss to Boundaries:         2.519 kW
 
       Time Step      20   April 24, 2021  14:37:16
       Step Size:    0.228E+00 s, Total Time:       4.56 s
       Pressure Iterations:      1
       Maximum Velocity Error:  0.00E+00 on Mesh   1 at (  20  19   0)
       Maximum Pressure Error:  0.28E+00 on Mesh   1 at (  21  21   1)
       ---------------------------------------------------------------
       Max CFL number:  0.39E+00 at (  23,  20,   1)
       Max divergence:  0.53E-01 at (  23,  24,   1)
       Min divergence: -0.44E-01 at (  23,  20,   1)
       Max VN number:   0.25E+00 at (  23,  20,   1)
       Total Heat Release Rate:              1.966 kW
       Radiation Loss to Boundaries:         4.879 kW
 
       Time Step      30   April 24, 2021  14:37:17
       Step Size:    0.132E+00 s, Total Time:       6.37 s
       Pressure Iterations:      1
       Maximum Velocity Error:  0.00E+00 on Mesh   1 at (  20  19   0)
       Maximum Pressure Error:  0.14E+01 on Mesh   1 at (  21  21   1)
       ---------------------------------------------------------------
       Max CFL number:  0.96E+00 at (  20,  21,   5)
       Max divergence:  0.93E-01 at (  21,  23,   1)
       Min divergence: -0.68E-01 at (  21,  21,   1)
       Max VN number:   0.46E+00 at (  21,  22,   1)
       Total Heat Release Rate:              4.053 kW
       Radiation Loss to Boundaries:         5.206 kW
 
       Time Step      40   April 24, 2021  14:37:18
       Step Size:    0.862E-01 s, Total Time:       7.40 s
       Pressure Iterations:      1
       Maximum Velocity Error:  0.00E+00 on Mesh   1 at (  24  23   0)
       Maximum Pressure Error:  0.47E+00 on Mesh   1 at (  20  21  10)
       ---------------------------------------------------------------
       Max CFL number:  0.92E+00 at (  21,  21,   6)
       Max divergence:  0.71E-01 at (  21,  23,   1)
       Min divergence: -0.55E-01 at (  22,  21,   9)
       Max VN number:   0.26E+00 at (  20,  21,   9)
       Total Heat Release Rate:              5.495 kW
       Radiation Loss to Boundaries:         5.246 kW
 
       Time Step      50   April 24, 2021  14:37:19
       Step Size:    0.862E-01 s, Total Time:       8.26 s
       Pressure Iterations:      1
       Maximum Velocity Error:  0.27E-19 on Mesh   1 at (  18  20   0)
       Maximum Pressure Error:  0.34E+00 on Mesh   1 at (  23  21  12)
       ---------------------------------------------------------------
       Max CFL number:  0.91E+00 at (  21,  22,   9)
       Max divergence:  0.95E-01 at (  19,  22,   1)
       Min divergence: -0.68E-01 at (  20,  22,   1)
       Max VN number:   0.44E+00 at (  22,  21,  12)
       Total Heat Release Rate:              6.785 kW
       Radiation Loss to Boundaries:         5.234 kW
 
       Time Step      60   April 24, 2021  14:37:19
       Step Size:    0.104E+00 s, Total Time:       9.20 s
       Pressure Iterations:      1
       Maximum Velocity Error:  0.11E-18 on Mesh   1 at (  19  23   0)
       Maximum Pressure Error:  0.34E+00 on Mesh   1 at (  21  22   5)
       ---------------------------------------------------------------
       Max CFL number:  0.81E+00 at (  21,  21,   9)
       Max divergence:  0.11E+00 at (  19,  21,   1)
       Min divergence: -0.40E-01 at (  20,  21,   1)
       Max VN number:   0.57E+00 at (  21,  23,  12)
       Total Heat Release Rate:              8.334 kW
       Radiation Loss to Boundaries:         5.226 kW
 
       Time Step      70   April 24, 2021  14:37:20
       Step Size:    0.879E-01 s, Total Time:      10.16 s
       Pressure Iterations:      1
       Maximum Velocity Error:  0.00E+00 on Mesh   1 at (  20  20   0)
       Maximum Pressure Error:  0.49E+00 on Mesh   1 at (  21  22  10)
       ---------------------------------------------------------------
       Max CFL number:  0.94E+00 at (  21,  22,   8)
       Max divergence:  0.11E+00 at (  23,  22,   1)
       Min divergence: -0.40E-01 at (  21,  22,  11)
       Max VN number:   0.37E+00 at (  21,  22,  12)
       Total Heat Release Rate:             10.420 kW
       Radiation Loss to Boundaries:         5.220 kW
 
       Time Step      80   April 24, 2021  14:37:21
       Step Size:    0.106E+00 s, Total Time:      11.13 s
       Pressure Iterations:      1
       Maximum Velocity Error:  0.38E-18 on Mesh   1 at (  19  20   0)
       Maximum Pressure Error:  0.44E+00 on Mesh   1 at (  22  22  12)
       ---------------------------------------------------------------
       Max CFL number:  0.79E+00 at (  21,  21,  10)
       Max divergence:  0.12E+00 at (  21,  23,   1)
       Min divergence: -0.34E-01 at (  21,  22,   3)
       Max VN number:   0.60E+00 at (  22,  21,  12)
       Total Heat Release Rate:             12.401 kW
       Radiation Loss to Boundaries:         4.946 kW
 
       Time Step      90   April 24, 2021  14:37:22
       Step Size:    0.102E+00 s, Total Time:      12.24 s
       Pressure Iterations:      1
       Maximum Velocity Error:  0.11E-18 on Mesh   1 at (  19  20   0)
       Maximum Pressure Error:  0.81E+00 on Mesh   1 at (  22  21  12)
       ---------------------------------------------------------------
       Max CFL number:  0.97E+00 at (  21,  22,   9)
       Max divergence:  0.13E+00 at (  23,  21,   1)
       Min divergence: -0.45E-01 at (  21,  21,   6)
       Max VN number:   0.52E+00 at (  20,  21,  12)
       Total Heat Release Rate:             15.253 kW
       Radiation Loss to Boundaries:         3.483 kW
 
       Time Step     100   April 24, 2021  14:37:23
       Step Size:    0.102E+00 s, Total Time:      13.26 s
       Pressure Iterations:      1
       Maximum Velocity Error:  0.00E+00 on Mesh   1 at (  24  24   0)
       Maximum Pressure Error:  0.23E+00 on Mesh   1 at (  21  21   5)
       ---------------------------------------------------------------
       Max CFL number:  0.82E+00 at (  21,  21,  10)
       Max divergence:  0.15E+00 at (  19,  22,   1)
       Min divergence: -0.62E-01 at (  21,  21,   4)
       Max VN number:   0.56E+00 at (  21,  21,  12)
       Total Heat Release Rate:             17.829 kW
       Radiation Loss to Boundaries:         3.074 kW
 
       Time Step     200   April 24, 2021  14:37:33
       Step Size:    0.912E-01 s, Total Time:      22.78 s
       Pressure Iterations:      1
       Maximum Velocity Error:  0.26E-17 on Mesh   1 at (  19  20   0)
       Maximum Pressure Error:  0.72E+00 on Mesh   1 at (  20  21   9)
       ---------------------------------------------------------------
       Max CFL number:  0.10E+01 at (  21,  21,  10)
       Max divergence:  0.24E+00 at (  21,  23,   1)
       Min divergence: -0.83E-01 at (  21,  21,   7)
       Max VN number:   0.64E+00 at (  22,  21,  12)
       Total Heat Release Rate:             53.341 kW
       Radiation Loss to Boundaries:        -8.702 kW
 
       Time Step     300   April 24, 2021  14:37:43
       Step Size:    0.723E-01 s, Total Time:      30.51 s
       Pressure Iterations:      1
       Maximum Velocity Error:  0.43E-17 on Mesh   1 at (  19  23   0)
       Maximum Pressure Error:  0.24E+01 on Mesh   1 at (  22  22  12)
       ---------------------------------------------------------------
       Max CFL number:  0.85E+00 at (  21,  22,   7)
       Max divergence:  0.43E+00 at (  21,  23,   1)
       Min divergence: -0.20E+00 at (  21,  22,   2)
       Max VN number:   0.59E+00 at (  22,  22,  12)
       Total Heat Release Rate:             96.506 kW
       Radiation Loss to Boundaries:       -20.356 kW
 
       Time Step     400   April 24, 2021  14:37:52
       Step Size:    0.568E-01 s, Total Time:      36.92 s
       Pressure Iterations:      1
       Maximum Velocity Error:  0.95E-17 on Mesh   1 at (  18  20   0)
       Maximum Pressure Error:  0.60E+01 on Mesh   1 at (  20  21  12)
       ---------------------------------------------------------------
       Max CFL number:  0.98E+00 at (  20,  22,   9)
       Max divergence:  0.59E+00 at (  21,  20,   1)
       Min divergence: -0.23E+00 at (  21,  22,   2)
       Max VN number:   0.53E+00 at (  21,  21,  12)
       Total Heat Release Rate:            142.431 kW
       Radiation Loss to Boundaries:       -31.314 kW
 
       Time Step     500   April 24, 2021  14:38:02
       Step Size:    0.531E-01 s, Total Time:      42.72 s
       Pressure Iterations:      1
       Maximum Velocity Error:  0.87E-17 on Mesh   1 at (  21  19   0)
       Maximum Pressure Error:  0.25E+01 on Mesh   1 at (  19  22  12)
       ---------------------------------------------------------------
       Max CFL number:  0.87E+00 at (  20,  22,   8)
       Max divergence:  0.77E+00 at (  21,  23,   1)
       Min divergence: -0.51E+00 at (  21,  22,   3)
       Max VN number:   0.61E+00 at (  20,  22,  12)
       Total Heat Release Rate:            190.559 kW
       Radiation Loss to Boundaries:       -43.502 kW
 
       Time Step     600   April 24, 2021  14:38:11
       Step Size:    0.455E-01 s, Total Time:      47.82 s
       Pressure Iterations:      1
       Maximum Velocity Error:  0.14E-16 on Mesh   1 at (  18  23   0)
       Maximum Pressure Error:  0.87E+01 on Mesh   1 at (  18  21  12)
       ---------------------------------------------------------------
       Max CFL number:  0.80E+00 at (  20,  22,   8)
       Max divergence:  0.10E+01 at (  20,  23,   1)
       Min divergence: -0.73E+00 at (  21,  22,   3)
       Max VN number:   0.58E+00 at (  19,  21,  12)
       Total Heat Release Rate:            238.947 kW
       Radiation Loss to Boundaries:       -55.241 kW
 
       Time Step     700   April 24, 2021  14:38:20
       Step Size:    0.498E-01 s, Total Time:      52.55 s
       Pressure Iterations:      1
       Maximum Velocity Error:  0.24E-16 on Mesh   1 at (  18  19   0)
       Maximum Pressure Error:  0.66E+01 on Mesh   1 at (  20  21   7)
       ---------------------------------------------------------------
       Max CFL number:  0.86E+00 at (  19,  22,   8)
       Max divergence:  0.11E+01 at (  22,  21,   1)
       Min divergence: -0.57E+00 at (  20,  22,   3)
       Max VN number:   0.62E+00 at (  19,  21,  12)
       Total Heat Release Rate:            255.950 kW
       Radiation Loss to Boundaries:       -60.093 kW
 
       Time Step     800   April 24, 2021  14:38:30
       Step Size:    0.488E-01 s, Total Time:      57.45 s
       Pressure Iterations:      1
       Maximum Velocity Error:  0.38E-16 on Mesh   1 at (  18  19   0)
       Maximum Pressure Error:  0.80E+01 on Mesh   1 at (  18  21  12)
       ---------------------------------------------------------------
       Max CFL number:  0.84E+00 at (  18,  21,   9)
       Max divergence:  0.11E+01 at (  20,  20,   1)
       Min divergence: -0.81E+00 at (  20,  21,   3)
       Max VN number:   0.53E+00 at (  17,  21,  12)
       Total Heat Release Rate:            262.184 kW
       Radiation Loss to Boundaries:       -62.127 kW
 
       Time Step     900   April 24, 2021  14:38:39
       Step Size:    0.525E-01 s, Total Time:      62.34 s
       Pressure Iterations:      1
       Maximum Velocity Error:  0.35E-16 on Mesh   1 at (  19  24   0)
       Maximum Pressure Error:  0.51E+01 on Mesh   1 at (  18  22  12)
       ---------------------------------------------------------------
       Max CFL number:  0.83E+00 at (  20,  22,   4)
       Max divergence:  0.10E+01 at (  19,  20,   1)
       Min divergence: -0.77E+00 at (  19,  21,   5)
       Max VN number:   0.51E+00 at (  18,  22,  12)
       Total Heat Release Rate:            260.997 kW
       Radiation Loss to Boundaries:       -60.702 kW
 
       Time Step    1000   April 24, 2021  14:38:48
       Step Size:    0.605E-01 s, Total Time:      67.52 s
       Pressure Iterations:      1
       Maximum Velocity Error:  0.68E-16 on Mesh   1 at (  19  21   0)
       Maximum Pressure Error:  0.55E+01 on Mesh   1 at (  18  20   7)
       ---------------------------------------------------------------
       Max CFL number:  0.82E+00 at (  18,  21,   5)
       Max divergence:  0.11E+01 at (  19,  23,   1)
       Min divergence: -0.46E+00 at (  19,  22,   2)
       Max VN number:   0.53E+00 at (  19,  23,  12)
       Total Heat Release Rate:            263.097 kW
       Radiation Loss to Boundaries:       -64.701 kW
 
       Time Step    1100   April 24, 2021  14:38:57
       Step Size:    0.452E-01 s, Total Time:      72.65 s
       Pressure Iterations:      1
       Maximum Velocity Error:  0.16E-15 on Mesh   1 at (  19  21   0)
       Maximum Pressure Error:  0.92E+01 on Mesh   1 at (  20  21   7)
       ---------------------------------------------------------------
       Max CFL number:  0.83E+00 at (  20,  21,   6)
       Max divergence:  0.89E+00 at (  19,  20,   1)
       Min divergence: -0.68E+00 at (  19,  22,   2)
       Max VN number:   0.42E+00 at (  16,  23,  12)
       Total Heat Release Rate:            260.334 kW
       Radiation Loss to Boundaries:       -70.323 kW
 
       Time Step    1200   April 24, 2021  14:39:06
       Step Size:    0.583E-01 s, Total Time:      77.66 s
       Pressure Iterations:      1
       Maximum Velocity Error:  0.20E-15 on Mesh   1 at (  19  21   0)
       Maximum Pressure Error:  0.44E+01 on Mesh   1 at (  17  23  10)
       ---------------------------------------------------------------
       Max CFL number:  0.89E+00 at (  17,  23,   8)
       Max divergence:  0.12E+01 at (  19,  20,   1)
       Min divergence: -0.61E+00 at (  21,  21,   3)
       Max VN number:   0.55E+00 at (  17,  22,  12)
       Total Heat Release Rate:            266.396 kW
       Radiation Loss to Boundaries:       -61.510 kW
 
       Time Step    1300   April 24, 2021  14:39:15
       Step Size:    0.431E-01 s, Total Time:      82.52 s
       Pressure Iterations:      1
       Maximum Velocity Error:  0.22E-15 on Mesh   1 at (  19  21   0)
       Maximum Pressure Error:  0.18E+02 on Mesh   1 at (  19  21  12)
       ---------------------------------------------------------------
       Max CFL number:  0.81E+00 at (  20,  21,   9)
       Max divergence:  0.91E+00 at (  19,  20,   1)
       Min divergence: -0.74E+00 at (  19,  22,   3)
       Max VN number:   0.60E+00 at (  19,  21,  12)
       Total Heat Release Rate:            258.521 kW
       Radiation Loss to Boundaries:       -69.824 kW
 
       Time Step    1400   April 24, 2021  14:39:24
       Step Size:    0.550E-01 s, Total Time:      87.56 s
       Pressure Iterations:      1
       Maximum Velocity Error:  0.24E-15 on Mesh   1 at (  19  21   0)
       Maximum Pressure Error:  0.89E+01 on Mesh   1 at (  17  22  12)
       ---------------------------------------------------------------
       Max CFL number:  0.85E+00 at (  18,  20,   7)
       Max divergence:  0.11E+01 at (  20,  23,   1)
       Min divergence: -0.89E+00 at (  20,  22,   2)
       Max VN number:   0.58E+00 at (  17,  21,  12)
       Total Heat Release Rate:            263.986 kW
       Radiation Loss to Boundaries:       -66.005 kW
 
       Time Step    1500   April 24, 2021  14:39:33
       Step Size:    0.418E-01 s, Total Time:      92.25 s
       Pressure Iterations:      1
       Maximum Velocity Error:  0.22E-15 on Mesh   1 at (  19  21   0)
       Maximum Pressure Error:  0.10E+02 on Mesh   1 at (  20  22   9)
       ---------------------------------------------------------------
       Max CFL number:  0.89E+00 at (  20,  22,   9)
       Max divergence:  0.90E+00 at (  18,  21,   1)
       Min divergence: -0.55E+00 at (  20,  21,   2)
       Max VN number:   0.42E+00 at (  18,  24,  12)
       Total Heat Release Rate:            259.244 kW
       Radiation Loss to Boundaries:       -67.337 kW
 
       Time Step    1600   April 24, 2021  14:39:42
       Step Size:    0.507E-01 s, Total Time:      97.14 s
       Pressure Iterations:      1
       Maximum Velocity Error:  0.21E-15 on Mesh   1 at (  19  21   0)
       Maximum Pressure Error:  0.71E+01 on Mesh   1 at (  19  21   6)
       ---------------------------------------------------------------
       Max CFL number:  0.80E+00 at (  18,  22,   9)
       Max divergence:  0.11E+01 at (  18,  21,   1)
       Min divergence: -0.91E+00 at (  20,  22,   2)
       Max VN number:   0.57E+00 at (  18,  22,  12)
       Total Heat Release Rate:            269.529 kW
       Radiation Loss to Boundaries:       -71.657 kW
 
       Time Step    1700   April 24, 2021  14:39:51
       Step Size:    0.531E-01 s, Total Time:     102.21 s
       Pressure Iterations:      1
       Maximum Velocity Error:  0.21E-15 on Mesh   1 at (  19  21   0)
       Maximum Pressure Error:  0.38E+01 on Mesh   1 at (  16  20  12)
       ---------------------------------------------------------------
       Max CFL number:  0.90E+00 at (  19,  21,  10)
       Max divergence:  0.92E+00 at (  18,  22,   1)
       Min divergence: -0.48E+00 at (  19,  21,   3)
       Max VN number:   0.58E+00 at (  19,  21,  12)
       Total Heat Release Rate:            258.923 kW
       Radiation Loss to Boundaries:       -64.672 kW
 
       Time Step    1800   April 24, 2021  14:40:00
       Step Size:    0.485E-01 s, Total Time:     107.24 s
       Pressure Iterations:      1
       Maximum Velocity Error:  0.22E-15 on Mesh   1 at (  19  21   0)
       Maximum Pressure Error:  0.12E+02 on Mesh   1 at (  18  20   9)
       ---------------------------------------------------------------
       Max CFL number:  0.91E+00 at (  18,  20,   9)
       Max divergence:  0.93E+00 at (  19,  23,   1)
       Min divergence: -0.70E+00 at (  20,  22,   2)
       Max VN number:   0.42E+00 at (  17,  21,  12)
       Total Heat Release Rate:            263.939 kW
       Radiation Loss to Boundaries:       -67.020 kW
 
       Time Step    1900   April 24, 2021  14:40:10
       Step Size:    0.471E-01 s, Total Time:     112.07 s
       Pressure Iterations:      1
       Maximum Velocity Error:  0.26E-15 on Mesh   1 at (  19  21   0)
       Maximum Pressure Error:  0.92E+01 on Mesh   1 at (  19  22  12)
       ---------------------------------------------------------------
       Max CFL number:  0.89E+00 at (  20,  22,   8)
       Max divergence:  0.10E+01 at (  20,  23,   1)
       Min divergence: -0.76E+00 at (  20,  22,   2)
       Max VN number:   0.42E+00 at (  19,  22,  12)
       Total Heat Release Rate:            266.222 kW
       Radiation Loss to Boundaries:       -68.328 kW
 
       Time Step    2000   April 24, 2021  14:40:19
       Step Size:    0.431E-01 s, Total Time:     117.08 s
       Pressure Iterations:      1
       Maximum Velocity Error:  0.27E-15 on Mesh   1 at (  19  21   0)
       Maximum Pressure Error:  0.80E+01 on Mesh   1 at (  20  22  12)
       ---------------------------------------------------------------
       Max CFL number:  0.92E+00 at (  20,  21,   8)
       Max divergence:  0.88E+00 at (  23,  23,   1)
       Min divergence: -0.67E+00 at (  19,  21,   3)
       Max VN number:   0.49E+00 at (  19,  22,  12)
       Total Heat Release Rate:            257.956 kW
       Radiation Loss to Boundaries:       -57.462 kW
 
       Time Step    2100   April 24, 2021  14:40:28
       Step Size:    0.508E-01 s, Total Time:     122.08 s
       Pressure Iterations:      1
       Maximum Velocity Error:  0.27E-15 on Mesh   1 at (  19  21   0)
       Maximum Pressure Error:  0.42E+01 on Mesh   1 at (  19  19  12)
       ---------------------------------------------------------------
       Max CFL number:  0.82E+00 at (  18,  21,  10)
       Max divergence:  0.12E+01 at (  21,  22,   1)
       Min divergence: -0.79E+00 at (  20,  22,   2)
       Max VN number:   0.59E+00 at (  18,  20,  12)
       Total Heat Release Rate:            271.103 kW
       Radiation Loss to Boundaries:       -72.385 kW
 
       Time Step    2200   April 24, 2021  14:40:38
       Step Size:    0.411E-01 s, Total Time:     127.13 s
       Pressure Iterations:      1
       Maximum Velocity Error:  0.28E-15 on Mesh   1 at (  19  21   0)
       Maximum Pressure Error:  0.90E+01 on Mesh   1 at (  19  21  10)
       ---------------------------------------------------------------
       Max CFL number:  0.88E+00 at (  19,  21,  10)
       Max divergence:  0.82E+00 at (  19,  20,   1)
       Min divergence: -0.46E+00 at (  19,  22,   2)
       Max VN number:   0.47E+00 at (  18,  20,  12)
       Total Heat Release Rate:            260.740 kW
       Radiation Loss to Boundaries:       -69.178 kW
 
       Time Step    2300   April 24, 2021  14:40:48
       Step Size:    0.531E-01 s, Total Time:     132.24 s
       Pressure Iterations:      1
       Maximum Velocity Error:  0.29E-15 on Mesh   1 at (  19  21   0)
       Maximum Pressure Error:  0.14E+02 on Mesh   1 at (  18  23  12)
       ---------------------------------------------------------------
       Max CFL number:  0.98E+00 at (  18,  23,  10)
       Max divergence:  0.10E+01 at (  19,  23,   1)
       Min divergence: -0.89E+00 at (  20,  22,   2)
       Max VN number:   0.49E+00 at (  18,  21,  12)
       Total Heat Release Rate:            261.194 kW
       Radiation Loss to Boundaries:       -67.557 kW
 
       Time Step    2400   April 24, 2021  14:40:58
       Step Size:    0.469E-01 s, Total Time:     137.25 s
       Pressure Iterations:      1
       Maximum Velocity Error:  0.28E-15 on Mesh   1 at (  19  21   0)
       Maximum Pressure Error:  0.10E+02 on Mesh   1 at (  19  22  12)
       ---------------------------------------------------------------
       Max CFL number:  0.84E+00 at (  19,  22,  11)
       Max divergence:  0.87E+00 at (  18,  22,   1)
       Min divergence: -0.48E+00 at (  19,  21,   3)
       Max VN number:   0.39E+00 at (  17,  24,  12)
       Total Heat Release Rate:            258.782 kW
       Radiation Loss to Boundaries:       -67.894 kW
 
       Time Step    2500   April 24, 2021  14:41:08
       Step Size:    0.448E-01 s, Total Time:     142.24 s
       Pressure Iterations:      1
       Maximum Velocity Error:  0.28E-15 on Mesh   1 at (  19  21   0)
       Maximum Pressure Error:  0.13E+02 on Mesh   1 at (  18  22  12)
       ---------------------------------------------------------------
       Max CFL number:  0.87E+00 at (  18,  22,  10)
       Max divergence:  0.10E+01 at (  19,  23,   1)
       Min divergence: -0.60E+00 at (  19,  22,   3)
       Max VN number:   0.54E+00 at (  18,  20,  12)
       Total Heat Release Rate:            262.427 kW
       Radiation Loss to Boundaries:       -67.061 kW
 
       Time Step    2600   April 24, 2021  14:41:17
       Step Size:    0.542E-01 s, Total Time:     147.46 s
       Pressure Iterations:      1
       Maximum Velocity Error:  0.30E-15 on Mesh   1 at (  19  21   0)
       Maximum Pressure Error:  0.11E+02 on Mesh   1 at (  17  22  12)
       ---------------------------------------------------------------
       Max CFL number:  0.86E+00 at (  17,  22,  11)
       Max divergence:  0.12E+01 at (  21,  21,   1)
       Min divergence: -0.11E+01 at (  20,  22,   2)
       Max VN number:   0.52E+00 at (  18,  22,  12)
       Total Heat Release Rate:            275.413 kW
       Radiation Loss to Boundaries:       -70.203 kW
 
       Time Step    2700   April 24, 2021  14:41:26
       Step Size:    0.461E-01 s, Total Time:     152.48 s
       Pressure Iterations:      1
       Maximum Velocity Error:  0.28E-15 on Mesh   1 at (  19  21   0)
       Maximum Pressure Error:  0.92E+01 on Mesh   1 at (  19  22   9)
       ---------------------------------------------------------------
       Max CFL number:  0.91E+00 at (  19,  22,   9)
       Max divergence:  0.83E+00 at (  19,  23,   1)
       Min divergence: -0.52E+00 at (  20,  23,   2)
       Max VN number:   0.53E+00 at (  18,  21,  12)
       Total Heat Release Rate:            260.359 kW
       Radiation Loss to Boundaries:       -77.204 kW
 
       Time Step    2800   April 24, 2021  14:41:35
       Step Size:    0.532E-01 s, Total Time:     157.61 s
       Pressure Iterations:      1
       Maximum Velocity Error:  0.28E-15 on Mesh   1 at (  19  21   0)
       Maximum Pressure Error:  0.77E+01 on Mesh   1 at (  19  21   5)
       ---------------------------------------------------------------
       Max CFL number:  0.90E+00 at (  19,  21,   4)
       Max divergence:  0.10E+01 at (  21,  22,   1)
       Min divergence: -0.68E+00 at (  19,  21,   5)
       Max VN number:   0.45E+00 at (  17,  21,  12)
       Total Heat Release Rate:            256.081 kW
       Radiation Loss to Boundaries:       -51.999 kW
 
       Time Step    2900   April 24, 2021  14:41:44
       Step Size:    0.563E-01 s, Total Time:     162.74 s
       Pressure Iterations:      1
       Maximum Velocity Error:  0.29E-15 on Mesh   1 at (  19  21   0)
       Maximum Pressure Error:  0.38E+01 on Mesh   1 at (  18  21   5)
       ---------------------------------------------------------------
       Max CFL number:  0.90E+00 at (  19,  22,   8)
       Max divergence:  0.10E+01 at (  19,  23,   1)
       Min divergence: -0.51E+00 at (  19,  22,   2)
       Max VN number:   0.53E+00 at (  19,  21,  12)
       Total Heat Release Rate:            265.870 kW
       Radiation Loss to Boundaries:       -71.140 kW
 
       Time Step    3000   April 24, 2021  14:41:53
       Step Size:    0.431E-01 s, Total Time:     167.83 s
       Pressure Iterations:      1
       Maximum Velocity Error:  0.29E-15 on Mesh   1 at (  19  21   0)
       Maximum Pressure Error:  0.99E+01 on Mesh   1 at (  17  23  12)
       ---------------------------------------------------------------
       Max CFL number:  0.74E+00 at (  18,  22,   8)
       Max divergence:  0.96E+00 at (  18,  21,   1)
       Min divergence: -0.51E+00 at (  20,  21,   3)
       Max VN number:   0.52E+00 at (  19,  22,  12)
       Total Heat Release Rate:            264.463 kW
       Radiation Loss to Boundaries:       -71.330 kW
 
       Time Step    3100   April 24, 2021  14:42:02
       Step Size:    0.545E-01 s, Total Time:     172.86 s
       Pressure Iterations:      1
       Maximum Velocity Error:  0.28E-15 on Mesh   1 at (  19  21   0)
       Maximum Pressure Error:  0.60E+01 on Mesh   1 at (  20  21   4)
       ---------------------------------------------------------------
       Max CFL number:  0.83E+00 at (  18,  22,   9)
       Max divergence:  0.13E+01 at (  20,  23,   1)
       Min divergence: -0.72E+00 at (  20,  22,   3)
       Max VN number:   0.59E+00 at (  17,  22,  12)
       Total Heat Release Rate:            266.611 kW
       Radiation Loss to Boundaries:       -64.456 kW
 
       Time Step    3200   April 24, 2021  14:42:10
       Step Size:    0.541E-01 s, Total Time:     177.87 s
       Pressure Iterations:      1
       Maximum Velocity Error:  0.25E-15 on Mesh   1 at (  19  21   0)
       Maximum Pressure Error:  0.94E+01 on Mesh   1 at (  18  21   9)
       ---------------------------------------------------------------
       Max CFL number:  0.88E+00 at (  19,  22,   5)
       Max divergence:  0.98E+00 at (  20,  20,   1)
       Min divergence: -0.69E+00 at (  20,  21,   2)
       Max VN number:   0.52E+00 at (  20,  21,  12)
       Total Heat Release Rate:            262.026 kW
       Radiation Loss to Boundaries:       -66.452 kW
 
       Time Step    3300   April 24, 2021  14:42:19
       Step Size:    0.519E-01 s, Total Time:     182.91 s
       Pressure Iterations:      1
       Maximum Velocity Error:  0.25E-15 on Mesh   1 at (  19  21   0)
       Maximum Pressure Error:  0.82E+01 on Mesh   1 at (  17  23  12)
       ---------------------------------------------------------------
       Max CFL number:  0.93E+00 at (  18,  22,   9)
       Max divergence:  0.90E+00 at (  19,  23,   1)
       Min divergence: -0.50E+00 at (  20,  21,   2)
       Max VN number:   0.51E+00 at (  17,  22,  12)
       Total Heat Release Rate:            257.551 kW
       Radiation Loss to Boundaries:       -60.560 kW
 
       Time Step    3400   April 24, 2021  14:42:29
       Step Size:    0.497E-01 s, Total Time:     187.90 s
       Pressure Iterations:      1
       Maximum Velocity Error:  0.26E-15 on Mesh   1 at (  19  21   0)
       Maximum Pressure Error:  0.70E+01 on Mesh   1 at (  18  21  12)
       ---------------------------------------------------------------
       Max CFL number:  0.88E+00 at (  18,  21,  10)
       Max divergence:  0.14E+01 at (  20,  23,   1)
       Min divergence: -0.76E+00 at (  19,  22,   4)
       Max VN number:   0.47E+00 at (  17,  21,  12)
       Total Heat Release Rate:            260.191 kW
       Radiation Loss to Boundaries:       -59.220 kW
 
       Time Step    3500   April 24, 2021  14:42:38
       Step Size:    0.500E-01 s, Total Time:     192.94 s
       Pressure Iterations:      1
       Maximum Velocity Error:  0.24E-15 on Mesh   1 at (  19  21   0)
       Maximum Pressure Error:  0.60E+01 on Mesh   1 at (  18  23  12)
       ---------------------------------------------------------------
       Max CFL number:  0.77E+00 at (  20,  22,  10)
       Max divergence:  0.91E+00 at (  22,  23,   1)
       Min divergence: -0.42E+00 at (  18,  22,   3)
       Max VN number:   0.54E+00 at (  19,  22,  12)
       Total Heat Release Rate:            263.927 kW
       Radiation Loss to Boundaries:       -68.255 kW
 
       Time Step    3600   April 24, 2021  14:42:47
       Step Size:    0.529E-01 s, Total Time:     198.03 s
       Pressure Iterations:      1
       Maximum Velocity Error:  0.21E-15 on Mesh   1 at (  22  22   0)
       Maximum Pressure Error:  0.10E+02 on Mesh   1 at (  19  21  12)
       ---------------------------------------------------------------
       Max CFL number:  0.96E+00 at (  18,  22,  10)
       Max divergence:  0.86E+00 at (  20,  20,   1)
       Min divergence: -0.53E+00 at (  19,  21,   2)
       Max VN number:   0.50E+00 at (  17,  21,  12)
       Total Heat Release Rate:            256.900 kW
       Radiation Loss to Boundaries:       -64.937 kW
 
       Time Step    3700   April 24, 2021  14:42:57
       Step Size:    0.510E-01 s, Total Time:     203.25 s
       Pressure Iterations:      1
       Maximum Velocity Error:  0.22E-15 on Mesh   1 at (  22  22   0)
       Maximum Pressure Error:  0.65E+01 on Mesh   1 at (  17  21  12)
       ---------------------------------------------------------------
       Max CFL number:  0.92E+00 at (  17,  21,  10)
       Max divergence:  0.12E+01 at (  19,  23,   1)
       Min divergence: -0.79E+00 at (  19,  22,   3)
       Max VN number:   0.47E+00 at (  17,  22,  12)
       Total Heat Release Rate:            264.889 kW
       Radiation Loss to Boundaries:       -65.711 kW
 
       Time Step    3800   April 24, 2021  14:43:07
       Step Size:    0.504E-01 s, Total Time:     208.47 s
       Pressure Iterations:      1
       Maximum Velocity Error:  0.20E-15 on Mesh   1 at (  22  22   0)
       Maximum Pressure Error:  0.10E+02 on Mesh   1 at (  16  24  12)
       ---------------------------------------------------------------
       Max CFL number:  0.89E+00 at (  17,  23,   9)
       Max divergence:  0.13E+01 at (  19,  21,   1)
       Min divergence: -0.77E+00 at (  20,  22,   2)
       Max VN number:   0.48E+00 at (  17,  24,  12)
       Total Heat Release Rate:            272.645 kW
       Radiation Loss to Boundaries:       -68.826 kW
 
       Time Step    3900   April 24, 2021  14:43:16
       Step Size:    0.427E-01 s, Total Time:     213.55 s
       Pressure Iterations:      1
       Maximum Velocity Error:  0.20E-15 on Mesh   1 at (  19  21   0)
       Maximum Pressure Error:  0.53E+01 on Mesh   1 at (  20  19   1)
       ---------------------------------------------------------------
       Max CFL number:  0.88E+00 at (  19,  21,   8)
       Max divergence:  0.92E+00 at (  19,  23,   1)
       Min divergence: -0.87E+00 at (  19,  22,   2)
       Max VN number:   0.44E+00 at (  18,  22,  12)
       Total Heat Release Rate:            267.906 kW
       Radiation Loss to Boundaries:       -69.274 kW
 
       Time Step    4000   April 24, 2021  14:43:25
       Step Size:    0.525E-01 s, Total Time:     218.77 s
       Pressure Iterations:      1
       Maximum Velocity Error:  0.20E-15 on Mesh   1 at (  19  21   0)
       Maximum Pressure Error:  0.13E+02 on Mesh   1 at (  18  24   9)
       ---------------------------------------------------------------
       Max CFL number:  0.92E+00 at (  19,  22,   8)
       Max divergence:  0.79E+00 at (  23,  20,   1)
       Min divergence: -0.88E+00 at (  19,  22,   2)
       Max VN number:   0.48E+00 at (  14,  21,  12)
       Total Heat Release Rate:            260.222 kW
       Radiation Loss to Boundaries:       -69.110 kW
 
       Time Step    4100   April 24, 2021  14:43:34
       Step Size:    0.566E-01 s, Total Time:     224.00 s
       Pressure Iterations:      1
       Maximum Velocity Error:  0.21E-15 on Mesh   1 at (  19  21   0)
       Maximum Pressure Error:  0.14E+02 on Mesh   1 at (  17  23   8)
       ---------------------------------------------------------------
       Max CFL number:  0.97E+00 at (  17,  23,   7)
       Max divergence:  0.10E+01 at (  20,  20,   1)
       Min divergence: -0.68E+00 at (  20,  21,   2)
       Max VN number:   0.56E+00 at (  16,  22,  12)
       Total Heat Release Rate:            257.066 kW
       Radiation Loss to Boundaries:       -59.951 kW
 
       Time Step    4200   April 24, 2021  14:43:43
       Step Size:    0.562E-01 s, Total Time:     229.22 s
       Pressure Iterations:      1
       Maximum Velocity Error:  0.19E-15 on Mesh   1 at (  22  22   0)
       Maximum Pressure Error:  0.45E+01 on Mesh   1 at (  18  22   8)
       ---------------------------------------------------------------
       Max CFL number:  0.98E+00 at (  18,  22,   8)
       Max divergence:  0.10E+01 at (  18,  22,   1)
       Min divergence: -0.10E+01 at (  20,  22,   2)
       Max VN number:   0.51E+00 at (  16,  23,  12)
       Total Heat Release Rate:            263.807 kW
       Radiation Loss to Boundaries:       -65.715 kW
 
       Time Step    4300   April 24, 2021  14:43:52
       Step Size:    0.525E-01 s, Total Time:     234.27 s
       Pressure Iterations:      1
       Maximum Velocity Error:  0.18E-15 on Mesh   1 at (  19  21   0)
       Maximum Pressure Error:  0.77E+01 on Mesh   1 at (  21  23  12)
       ---------------------------------------------------------------
       Max CFL number:  0.92E+00 at (  20,  24,  10)
       Max divergence:  0.86E+00 at (  18,  22,   1)
       Min divergence: -0.55E+00 at (  21,  21,   2)
       Max VN number:   0.48E+00 at (  21,  23,  12)
       Total Heat Release Rate:            260.980 kW
       Radiation Loss to Boundaries:       -67.784 kW
 
       Time Step    4400   April 24, 2021  14:44:01
       Step Size:    0.511E-01 s, Total Time:     239.27 s
       Pressure Iterations:      1
       Maximum Velocity Error:  0.17E-15 on Mesh   1 at (  19  21   0)
       Maximum Pressure Error:  0.13E+02 on Mesh   1 at (  19  21  12)
       ---------------------------------------------------------------
       Max CFL number:  0.95E+00 at (  20,  23,   8)
       Max divergence:  0.88E+00 at (  19,  23,   1)
       Min divergence: -0.57E+00 at (  19,  22,   4)
       Max VN number:   0.58E+00 at (  19,  21,  12)
       Total Heat Release Rate:            260.732 kW
       Radiation Loss to Boundaries:       -63.760 kW
 
       Time Step    4500   April 24, 2021  14:44:10
       Step Size:    0.511E-01 s, Total Time:     244.29 s
       Pressure Iterations:      1
       Maximum Velocity Error:  0.19E-15 on Mesh   1 at (  22  22   0)
       Maximum Pressure Error:  0.87E+01 on Mesh   1 at (  18  22  10)
       ---------------------------------------------------------------
       Max CFL number:  0.92E+00 at (  18,  22,   9)
       Max divergence:  0.11E+01 at (  20,  23,   1)
       Min divergence: -0.74E+00 at (  20,  22,   3)
       Max VN number:   0.48E+00 at (  19,  21,  12)
       Total Heat Release Rate:            265.856 kW
       Radiation Loss to Boundaries:       -66.328 kW
 
       Time Step    4600   April 24, 2021  14:44:19
       Step Size:    0.450E-01 s, Total Time:     248.77 s
       Pressure Iterations:      1
       Maximum Velocity Error:  0.18E-15 on Mesh   1 at (  19  21   0)
       Maximum Pressure Error:  0.11E+02 on Mesh   1 at (  21  22  12)
       ---------------------------------------------------------------
       Max CFL number:  0.77E+00 at (  19,  22,  10)
       Max divergence:  0.96E+00 at (  18,  21,   1)
       Min divergence: -0.66E+00 at (  20,  21,   2)
       Max VN number:   0.60E+00 at (  20,  22,  12)
       Total Heat Release Rate:            259.643 kW
       Radiation Loss to Boundaries:       -69.879 kW
 
       Time Step    4700   April 24, 2021  14:44:29
       Step Size:    0.557E-01 s, Total Time:     254.07 s
       Pressure Iterations:      1
       Maximum Velocity Error:  0.19E-15 on Mesh   1 at (  19  21   0)
       Maximum Pressure Error:  0.36E+01 on Mesh   1 at (  17  23  12)
       ---------------------------------------------------------------
       Max CFL number:  0.83E+00 at (  19,  22,   6)
       Max divergence:  0.11E+01 at (  20,  20,   1)
       Min divergence: -0.71E+00 at (  20,  21,   2)
       Max VN number:   0.54E+00 at (  18,  23,  12)
       Total Heat Release Rate:            261.878 kW
       Radiation Loss to Boundaries:       -66.150 kW
 
       Time Step    4800   April 24, 2021  14:44:38
       Step Size:    0.498E-01 s, Total Time:     259.04 s
       Pressure Iterations:      1
       Maximum Velocity Error:  0.18E-15 on Mesh   1 at (  19  21   0)
       Maximum Pressure Error:  0.87E+01 on Mesh   1 at (  20  22  12)
       ---------------------------------------------------------------
       Max CFL number:  0.81E+00 at (  19,  21,  10)
       Max divergence:  0.98E+00 at (  19,  23,   1)
       Min divergence: -0.68E+00 at (  20,  21,   3)
       Max VN number:   0.49E+00 at (  19,  22,  12)
       Total Heat Release Rate:            262.112 kW
       Radiation Loss to Boundaries:       -65.239 kW
 
       Time Step    4900   April 24, 2021  14:44:47
       Step Size:    0.493E-01 s, Total Time:     263.87 s
       Pressure Iterations:      1
       Maximum Velocity Error:  0.18E-15 on Mesh   1 at (  19  21   0)
       Maximum Pressure Error:  0.63E+01 on Mesh   1 at (  20  22   5)
       ---------------------------------------------------------------
       Max CFL number:  0.94E+00 at (  19,  22,   6)
       Max divergence:  0.11E+01 at (  20,  20,   1)
       Min divergence: -0.77E+00 at (  20,  22,   2)
       Max VN number:   0.41E+00 at (  16,  22,  12)
       Total Heat Release Rate:            259.429 kW
       Radiation Loss to Boundaries:       -59.978 kW
 
       Time Step    5000   April 24, 2021  14:44:56
       Step Size:    0.529E-01 s, Total Time:     268.82 s
       Pressure Iterations:      1
       Maximum Velocity Error:  0.21E-15 on Mesh   1 at (  19  21   0)
       Maximum Pressure Error:  0.55E+01 on Mesh   1 at (  18  22  12)
       ---------------------------------------------------------------
       Max CFL number:  0.87E+00 at (  19,  22,   9)
       Max divergence:  0.95E+00 at (  19,  23,   1)
       Min divergence: -0.78E+00 at (  20,  22,   2)
       Max VN number:   0.51E+00 at (  19,  22,  12)
       Total Heat Release Rate:            262.012 kW
       Radiation Loss to Boundaries:       -67.782 kW
 
       Time Step    5100   April 24, 2021  14:45:06
       Step Size:    0.472E-01 s, Total Time:     274.06 s
       Pressure Iterations:      1
       Maximum Velocity Error:  0.24E-15 on Mesh   1 at (  19  21   0)
       Maximum Pressure Error:  0.62E+01 on Mesh   1 at (  18  21  10)
       ---------------------------------------------------------------
       Max CFL number:  0.94E+00 at (  18,  21,   9)
       Max divergence:  0.90E+00 at (  19,  20,   1)
       Min divergence: -0.56E+00 at (  20,  21,   2)
       Max VN number:   0.51E+00 at (  19,  22,  12)
       Total Heat Release Rate:            264.670 kW
       Radiation Loss to Boundaries:       -71.594 kW
 
       Time Step    5200   April 24, 2021  14:45:15
       Step Size:    0.463E-01 s, Total Time:     279.28 s
       Pressure Iterations:      1
       Maximum Velocity Error:  0.26E-15 on Mesh   1 at (  19  21   0)
       Maximum Pressure Error:  0.68E+01 on Mesh   1 at (  17  25  12)
       ---------------------------------------------------------------
       Max CFL number:  0.80E+00 at (  19,  23,  10)
       Max divergence:  0.90E+00 at (  20,  20,   1)
       Min divergence: -0.73E+00 at (  19,  22,   2)
       Max VN number:   0.54E+00 at (  17,  24,  12)
       Total Heat Release Rate:            262.460 kW
       Radiation Loss to Boundaries:       -68.000 kW
 
       Time Step    5300   April 24, 2021  14:45:24
       Step Size:    0.501E-01 s, Total Time:     284.63 s
       Pressure Iterations:      1
       Maximum Velocity Error:  0.25E-15 on Mesh   1 at (  19  21   0)
       Maximum Pressure Error:  0.88E+01 on Mesh   1 at (  16  23  12)
       ---------------------------------------------------------------
       Max CFL number:  0.85E+00 at (  18,  22,  10)
       Max divergence:  0.98E+00 at (  20,  20,   1)
       Min divergence: -0.52E+00 at (  19,  21,   3)
       Max VN number:   0.53E+00 at (  17,  22,  12)
       Total Heat Release Rate:            258.949 kW
       Radiation Loss to Boundaries:       -65.319 kW
 
       Time Step    5400   April 24, 2021  14:45:34
       Step Size:    0.594E-01 s, Total Time:     289.99 s
       Pressure Iterations:      1
       Maximum Velocity Error:  0.26E-15 on Mesh   1 at (  19  21   0)
       Maximum Pressure Error:  0.17E+02 on Mesh   1 at (  18  24   9)
       ---------------------------------------------------------------
       Max CFL number:  0.95E+00 at (  18,  24,   7)
       Max divergence:  0.10E+01 at (  21,  22,   1)
       Min divergence: -0.70E+00 at (  20,  22,   3)
       Max VN number:   0.55E+00 at (  18,  23,  12)
       Total Heat Release Rate:            256.668 kW
       Radiation Loss to Boundaries:       -56.239 kW
 
       Time Step    5500   April 24, 2021  14:45:43
       Step Size:    0.541E-01 s, Total Time:     295.18 s
       Pressure Iterations:      1
       Maximum Velocity Error:  0.26E-15 on Mesh   1 at (  19  21   0)
       Maximum Pressure Error:  0.34E+01 on Mesh   1 at (  17  24  12)
       ---------------------------------------------------------------
       Max CFL number:  0.84E+00 at (  19,  22,   7)
       Max divergence:  0.10E+01 at (  19,  23,   1)
       Min divergence: -0.85E+00 at (  20,  22,   2)
       Max VN number:   0.54E+00 at (  18,  22,  12)
       Total Heat Release Rate:            264.315 kW
       Radiation Loss to Boundaries:       -72.764 kW
 
       Time Step    5594   April 24, 2021  14:45:52
       Step Size:    0.368E-01 s, Total Time:     300.00 s
       Pressure Iterations:      1
       Maximum Velocity Error:  0.26E-15 on Mesh   1 at (  19  21   0)
       Maximum Pressure Error:  0.13E+02 on Mesh   1 at (  19  24   1)
       ---------------------------------------------------------------
       Max CFL number:  0.64E+00 at (  19,  23,   9)
       Max divergence:  0.10E+01 at (  19,  23,   1)
       Min divergence: -0.67E+00 at (  20,  21,   2)
       Max VN number:   0.35E+00 at (  19,  22,  12)
       Total Heat Release Rate:            269.140 kW
       Radiation Loss to Boundaries:       -65.613 kW
 


 Time Stepping Wall Clock Time (s):      517.944
 Total Elapsed Wall Clock Time (s):      520.688

STOP: FDS completed successfully (CHID: Model1)
